finish
/ clear            !清除目前ANSYS中所有数据
/filnam,internal force in frame  !定义工作名
/title,frame                     !定义分析标题
/prep7             !进入前处理模块
ET,1,BEAM4         !定义热分析单元
MP,ex,1,2.06e11      !定义钢管的材料的弹性模量
MP,dens,1,7850       !定义钢管的材料的密度  
MP,alpx,1,1.2e-5     !定义钢管的材料的线膨胀系数
MP,prxy,1,0.3        !定义钢管的材料的泊松比
TB,BISO,1,1,2,       !定义钢管的本构关系为双线性模型
TBTEMP,0             !定义钢管的本构关系所对应的温度
TBDATA,,345e6,0,,,,  !定义钢管的的屈服强度为345MPa
R,1,850000         !面积
TYPE,1
MAT,1
REAL,1
N,1,-4.74575335802703,7.40582283252268,-5.13324601088104
N,2,-6.64222909717243,6.94828717739703,-5.12171968083857
N,3,-8.21927653979531,5.79981336262314,-5.12632065612855
N,4,-9.23675554409445,4.13529523214156,-5.14156786583289
N,5,-9.53981265131369,2.20807539858557,-5.15099474006029
N,6,-9.08227691831303,0.311561431453105,-5.15123060012869
N,7,-7.93381271585498,-1.26547911894967,-5.14220465030643
N,8,-6.26927615538172,-2.28297111415018,-5.1305949415989
N,9,-4.34203769534639,-2.58602452720353,-5.13274607668094
N,10,-2.44555985944285,-2.12849459216448,-5.1451003922545
N,11,-0.868510338465956,-0.980027068002007,-5.15183762019322
N,12,0.148994177876085,0.684541369967511,-5.15023410555539
N,13,0.452035608447061,2.61176881899005,-5.1417391521418
N,14,-0.00551648725316714,4.50827684310338,-5.14216081993884
N,15,-1.15399393212631,6.08530705367772,-5.15136359426103
N,16,-2.81856782662702,7.10279534479632,-5.14870302035443
N,17,-5.14948486245757,17.3976695520388,-5.95291148439191
N,18,-10.8389120687466,16.0250625628269,-5.8774919143875
N,19,-15.5700544059401,12.5796411409492,-5.90769498462284
N,20,-18.6224914265803,7.5860867533687,-6.00697135636659
! ... 108 like lines cut
E,1,125
E,2,33
E,3,52
E,4,73
E,5,77
E,6,81
E,7,85
E,8,89
E,9,93
E,10,97
E,11,101
E,12,105
E,13,109
E,14,113
E,15,117
E,16,121
E,2,1
E,3,2
E,4,3
E,5,4
! ... 523 like lines cut
d,55, all,0
d,56, all,0
d,57, all,0
d,58, all,0
d,59, all,0
d,60, all,0
d,61, all,0
d,62, all,0
d,63, all,0
d,64, all,0
d,65, all,0
d,66, all,0
d,67, all,0
d,68, all,0
d,69, all,0
d,70, all,0
!（11）合并节点与压缩节点编号
!NUMCMP,node
!NUMCMP,elem
alls,all
ACEL,,,9.8
/SOLU                   !进入求解器
ANTYPE,0               !静力分析
EQSLV,SPAR
PSTRES,ON
solve                  !进行求解
finish                    !完成分析退出求解器
/post1                   !进入后处理

